# DIS package for  MODFLOW-2005, generated by Flopy.
         1      1201      1201        13         4         2
  0
INTERNAL               1 (1201E15.6) -1 #delr                          
   2.500000E-01   2.500000E-01   2.500000E-01   2.500000E-01   2.500000E-01   2.500000E-01   2.500000E-01   2.500000E-01   2.500000E-01   2.500000E-01   2.500000E-01   2.500000E-01   2.500000E-01   2.500000E-01   2.500000E-01   2.500000E-01   2.500000E-01   2.500000E-01   2.500000E-01   2.500000E-01   2.500000E-01   2.500000E-01   2.500000E-01   2.500000E-01   2.500000E-01   2.500000E-01   2.500000E-01   2.500000E-01   2.500000E-01   2.500000E-01   2.500000E-01   2.500000E-01   2.500000E-01   2.500000E-01   2.500000E-01   2.500000E-01   2.500000E-01   2.500000E-01   2.500000E-01   2.500000E-01   2.500000E-01   2.500000E-01   2.500000E-01   2.500000E-01   2.500000E-01   2.500000E-01   2.500000E-01   2.500000E-01   2.500000E-01   2.500000E-01   2.500000E-01   2.500000E-01   2.500000E-01   2.500000E-01   2.500000E-01   2.500000E-01   2.500000E-01   2.500000E-01   2.500000E-01   2.500000E-01   2.500000E-01   2.500000E-01   2.500000E-01   2.500000E-01   2.500000E-01   2.500000E-01   2.500000E-01   2.500000E-01   2.500000E-01   2.500000E-01   2.500000E-01   2.500000E-01   2.500000E-01   2.500000E-01   2.500000E-01   2.500000E-01   2.500000E-01   2.500000E-01   2.500000E-01   2.500000E-01   2.500000E-01   2.500000E-01   2.500000E-01   2.500000E-01   2.500000E-01   2.500000E-01   2.500000E-01   2.500000E-01   2.500000E-01   2.500000E-01   2.500000E-01   2.500000E-01   2.500000E-01   2.500000E-01   2.500000E-01   2.500000E-01   2.500000E-01   2.500000E-01   2.500000E-01   2.500000E-01   2.500000E-01   2.500000E-01   2.500000E-01   2.500000E-01   2.500000E-01   2.500000E-01   2.500000E-01   2.500000E-01   2.500000E-01   2.500000E-01   2.500000E-01   2.500000E-01   2.500000E-01   2.500000E-01   2.500000E-01   2.500000E-01   2.500000E-01   2.500000E-01   2.500000E-01   2.500000E-01   2.500000E-01   2.500000E-01   2.500000E-01   2.500000E-01   2.500000E-01   2.500000E-01   2.500000E-01   2.500000E-01   2.500000E-01   2.500000E-01   2.500000E-01   2.500000E-01   2.500000E-01   2.500000E-01   2.500000E-01   2.500000E-01   2.500000E-01   2.500000E-01   2.500000E-01   2.500000E-01   2.500000E-01   2.500000E-01   2.500000E-01   2.500000E-01   2.500000E-01   2.500000E-01   2.500000E-01   2.500000E-01   2.500000E-01   2.500000E-01   2.500000E-01   2.500000E-01   2.500000E-01   2.500000E-01   2.500000E-01   2.500000E-01   2.500000E-01   2.500000E-01   2.500000E-01   2.500000E-01   2.500000E-01   2.500000E-01   2.500000E-01   2.500000E-01   2.500000E-01   2.500000E-01   2.500000E-01   2.500000E-01   2.500000E-01   2.500000E-01   2.500000E-01   2.500000E-01   2.500000E-01   2.500000E-01   2.500000E-01   2.500000E-01   2.500000E-01   2.500000E-01   2.500000E-01   2.500000E-01   2.500000E-01   2.500000E-01   2.500000E-01   2.500000E-01   2.500000E-01   2.500000E-01   2.500000E-01   2.500000E-01   2.500000E-01   2.500000E-01   2.500000E-01   2.500000E-01   2.500000E-01   2.500000E-01   2.500000E-01   2.500000E-01   2.500000E-01   2.500000E-01   2.500000E-01   2.500000E-01   2.500000E-01   2.500000E-01   2.500000E-01   2.500000E-01   2.500000E-01   2.500000E-01   2.500000E-01   2.500000E-01   2.500000E-01   2.500000E-01   2.500000E-01   2.500000E-01   2.500000E-01   2.500000E-01   2.500000E-01   2.500000E-01   2.500000E-01   2.500000E-01   2.500000E-01   2.500000E-01   2.500000E-01   2.500000E-01   2.500000E-01   2.500000E-01   2.500000E-01   2.500000E-01   2.500000E-01   2.500000E-01   2.500000E-01   2.500000E-01   2.500000E-01   2.500000E-01   2.500000E-01   2.500000E-01   2.500000E-01   2.500000E-01   2.500000E-01   2.500000E-01   2.500000E-01   2.500000E-01   2.500000E-01   2.500000E-01   2.500000E-01   2.500000E-01   2.500000E-01   2.500000E-01   2.500000E-01   2.500000E-01   2.500000E-01   2.500000E-01   2.500000E-01   2.500000E-01   2.500000E-01   2.500000E-01   2.500000E-01   2.500000E-01   2.500000E-01   2.500000E-01   2.500000E-01   2.500000E-01   2.500000E-01   2.500000E-01   2.500000E-01   2.500000E-01   2.500000E-01   2.500000E-01   2.500000E-01   2.500000E-01   2.500000E-01   2.500000E-01   2.500000E-01   2.500000E-01   2.500000E-01   2.500000E-01   2.500000E-01   2.500000E-01   2.500000E-01   2.500000E-01   2.500000E-01   2.500000E-01   2.500000E-01   2.500000E-01   2.500000E-01   2.500000E-01   2.500000E-01   2.500000E-01   2.500000E-01   2.500000E-01   2.500000E-01   2.500000E-01   2.500000E-01   2.500000E-01   2.500000E-01   2.500000E-01   2.500000E-01   2.500000E-01   2.500000E-01   2.500000E-01   2.500000E-01   2.500000E-01   2.500000E-01   2.500000E-01   2.500000E-01   2.500000E-01   2.500000E-01   2.500000E-01   2.500000E-01   2.500000E-01   2.500000E-01   2.500000E-01   2.500000E-01   2.500000E-01   2.500000E-01   2.500000E-01   2.500000E-01   2.500000E-01   2.500000E-01   2.500000E-01   2.500000E-01   2.500000E-01   2.500000E-01   2.500000E-01   2.500000E-01   2.500000E-01   2.500000E-01   2.500000E-01   2.500000E-01   2.500000E-01   2.500000E-01   2.500000E-01   2.500000E-01   2.500000E-01   2.500000E-01   2.500000E-01   2.500000E-01   2.500000E-01   2.500000E-01   2.500000E-01   2.500000E-01   2.500000E-01   2.500000E-01   2.500000E-01   2.500000E-01   2.500000E-01   2.500000E-01   2.500000E-01   2.500000E-01   2.500000E-01   2.500000E-01   2.500000E-01   2.500000E-01   2.500000E-01   2.500000E-01   2.500000E-01   2.500000E-01   2.500000E-01   2.500000E-01   2.500000E-01   2.500000E-01   2.500000E-01   2.500000E-01   2.500000E-01   2.500000E-01   2.500000E-01   2.500000E-01   2.500000E-01   2.500000E-01   2.500000E-01   2.500000E-01   2.500000E-01   2.500000E-01   2.500000E-01   2.500000E-01   2.500000E-01   2.500000E-01   2.500000E-01   2.500000E-01   2.500000E-01   2.500000E-01   2.500000E-01   2.500000E-01   2.500000E-01   2.500000E-01   2.500000E-01   2.500000E-01   2.500000E-01   2.500000E-01   2.500000E-01   2.500000E-01   2.500000E-01   2.500000E-01   2.500000E-01   2.500000E-01   2.500000E-01   2.500000E-01   2.500000E-01   2.500000E-01   2.500000E-01   2.500000E-01   2.500000E-01   2.500000E-01   2.500000E-01   2.500000E-01   2.500000E-01   2.500000E-01   2.500000E-01   2.500000E-01   2.500000E-01   2.500000E-01   2.500000E-01   2.500000E-01   2.500000E-01   2.500000E-01   2.500000E-01   2.500000E-01   2.500000E-01   2.500000E-01   2.500000E-01   2.500000E-01   2.500000E-01   2.500000E-01   2.500000E-01   2.500000E-01   2.500000E-01   2.500000E-01   2.500000E-01   2.500000E-01   2.500000E-01   2.500000E-01   2.500000E-01   2.500000E-01   2.500000E-01   2.500000E-01   2.500000E-01   2.500000E-01   2.500000E-01   2.500000E-01   2.500000E-01   2.500000E-01   2.500000E-01   2.500000E-01   2.500000E-01   2.500000E-01   2.500000E-01   2.500000E-01   2.500000E-01   2.500000E-01   2.500000E-01   2.500000E-01   2.500000E-01   2.500000E-01   2.500000E-01   2.500000E-01   2.500000E-01   2.500000E-01   2.500000E-01   2.500000E-01   2.500000E-01   2.500000E-01   2.500000E-01   2.500000E-01   2.500000E-01   2.500000E-01   2.500000E-01   2.500000E-01   2.500000E-01   2.500000E-01   2.500000E-01   2.500000E-01   2.500000E-01   2.500000E-01   2.500000E-01   2.500000E-01   2.500000E-01   2.500000E-01   2.500000E-01   2.500000E-01   2.500000E-01   2.500000E-01   2.500000E-01   2.500000E-01   2.500000E-01   2.500000E-01   2.500000E-01   2.500000E-01   2.500000E-01   2.500000E-01   2.500000E-01   2.500000E-01   2.500000E-01   2.500000E-01   2.500000E-01   2.500000E-01   2.500000E-01   2.500000E-01   2.500000E-01   2.500000E-01   2.500000E-01   2.500000E-01   2.500000E-01   2.500000E-01   2.500000E-01   2.500000E-01   2.500000E-01   2.500000E-01   2.500000E-01   2.500000E-01   2.500000E-01   2.500000E-01   2.500000E-01   2.500000E-01   2.500000E-01   2.500000E-01   2.500000E-01   2.500000E-01   2.500000E-01   2.500000E-01   2.500000E-01   2.500000E-01   2.500000E-01   2.500000E-01   2.500000E-01   2.500000E-01   2.500000E-01   2.500000E-01   2.500000E-01   2.500000E-01   2.500000E-01   2.500000E-01   2.500000E-01   2.500000E-01   2.500000E-01   2.500000E-01   2.500000E-01   2.500000E-01   2.500000E-01   2.500000E-01   2.500000E-01   2.500000E-01   2.500000E-01   2.500000E-01   2.500000E-01   2.500000E-01   2.500000E-01   2.500000E-01   2.500000E-01   2.500000E-01   2.500000E-01   2.500000E-01   2.500000E-01   2.500000E-01   2.500000E-01   2.500000E-01   2.500000E-01   2.500000E-01   2.500000E-01   2.500000E-01   2.500000E-01   2.500000E-01   2.500000E-01   2.500000E-01   2.500000E-01   2.500000E-01   2.500000E-01   2.500000E-01   2.500000E-01   2.500000E-01   2.500000E-01   2.500000E-01   2.500000E-01   2.500000E-01   2.500000E-01   2.500000E-01   2.500000E-01   2.500000E-01   2.500000E-01   2.500000E-01   2.500000E-01   2.500000E-01   2.500000E-01   2.500000E-01   2.500000E-01   2.500000E-01   2.500000E-01   2.500000E-01   2.500000E-01   2.500000E-01   2.500000E-01   2.500000E-01   2.500000E-01   2.500000E-01   2.500000E-01   2.500000E-01   2.500000E-01   2.500000E-01   2.500000E-01   2.500000E-01   2.500000E-01   2.500000E-01   2.500000E-01   2.500000E-01   2.500000E-01   2.500000E-01   2.500000E-01   2.500000E-01   2.500000E-01   2.500000E-01   2.500000E-01   2.500000E-01   2.500000E-01   2.500000E-01   2.500000E-01   2.500000E-01   2.500000E-01   2.500000E-01   2.500000E-01   2.500000E-01   2.500000E-01   2.500000E-01   2.500000E-01   2.500000E-01   2.500000E-01   2.500000E-01   2.500000E-01   2.500000E-01   2.500000E-01   2.500000E-01   2.500000E-01   2.500000E-01   2.500000E-01   2.500000E-01   2.500000E-01   2.500000E-01   2.500000E-01   2.500000E-01   2.500000E-01   2.500000E-01   2.500000E-01   2.500000E-01   2.500000E-01   2.500000E-01   2.500000E-01   2.500000E-01   2.500000E-01   2.500000E-01   2.500000E-01   2.500000E-01   2.500000E-01   2.500000E-01   2.500000E-01   2.500000E-01   2.500000E-01   2.500000E-01   2.500000E-01   2.500000E-01   2.500000E-01   2.500000E-01   2.500000E-01   2.500000E-01   2.500000E-01   2.500000E-01   2.500000E-01   2.500000E-01   2.500000E-01   2.500000E-01   2.500000E-01   2.500000E-01   2.500000E-01   2.500000E-01   2.500000E-01   2.500000E-01   2.500000E-01   2.500000E-01   2.500000E-01   2.500000E-01   2.500000E-01   2.500000E-01   2.500000E-01   2.500000E-01   2.500000E-01   2.500000E-01   2.500000E-01   2.500000E-01   2.500000E-01   2.500000E-01   2.500000E-01   2.500000E-01   2.500000E-01   2.500000E-01   2.500000E-01   2.500000E-01   2.500000E-01   2.500000E-01   2.500000E-01   2.500000E-01   2.500000E-01   2.500000E-01   2.500000E-01   2.500000E-01   2.500000E-01   2.500000E-01   2.500000E-01   2.500000E-01   2.500000E-01   2.500000E-01   2.500000E-01   2.500000E-01   2.500000E-01   2.500000E-01   2.500000E-01   2.500000E-01   2.500000E-01   2.500000E-01   2.500000E-01   2.500000E-01   2.500000E-01   2.500000E-01   2.500000E-01   2.500000E-01   2.500000E-01   2.500000E-01   2.500000E-01   2.500000E-01   2.500000E-01   2.500000E-01   2.500000E-01   2.500000E-01   2.500000E-01   2.500000E-01   2.500000E-01   2.500000E-01   2.500000E-01   2.500000E-01   2.500000E-01   2.500000E-01   2.500000E-01   2.500000E-01   2.500000E-01   2.500000E-01   2.500000E-01   2.500000E-01   2.500000E-01   2.500000E-01   2.500000E-01   2.500000E-01   2.500000E-01   2.500000E-01   2.500000E-01   2.500000E-01   2.500000E-01   2.500000E-01   2.500000E-01   2.500000E-01   2.500000E-01   2.500000E-01   2.500000E-01   2.500000E-01   2.500000E-01   2.500000E-01   2.500000E-01   2.500000E-01   2.500000E-01   2.500000E-01   2.500000E-01   2.500000E-01   2.500000E-01   2.500000E-01   2.500000E-01   2.500000E-01   2.500000E-01   2.500000E-01   2.500000E-01   2.500000E-01   2.500000E-01   2.500000E-01   2.500000E-01   2.500000E-01   2.500000E-01   2.500000E-01   2.500000E-01   2.500000E-01   2.500000E-01   2.500000E-01   2.500000E-01   2.500000E-01   2.500000E-01   2.500000E-01   2.500000E-01   2.500000E-01   2.500000E-01   2.500000E-01   2.500000E-01   2.500000E-01   2.500000E-01   2.500000E-01   2.500000E-01   2.500000E-01   2.500000E-01   2.500000E-01   2.500000E-01   2.500000E-01   2.500000E-01   2.500000E-01   2.500000E-01   2.500000E-01   2.500000E-01   2.500000E-01   2.500000E-01   2.500000E-01   2.500000E-01   2.500000E-01   2.500000E-01   2.500000E-01   2.500000E-01   2.500000E-01   2.500000E-01   2.500000E-01   2.500000E-01   2.500000E-01   2.500000E-01   2.500000E-01   2.500000E-01   2.500000E-01   2.500000E-01   2.500000E-01   2.500000E-01   2.500000E-01   2.500000E-01   2.500000E-01   2.500000E-01   2.500000E-01   2.500000E-01   2.500000E-01   2.500000E-01   2.500000E-01   2.500000E-01   2.500000E-01   2.500000E-01   2.500000E-01   2.500000E-01   2.500000E-01   2.500000E-01   2.500000E-01   2.500000E-01   2.500000E-01   2.500000E-01   2.500000E-01   2.500000E-01   2.500000E-01   2.500000E-01   2.500000E-01   2.500000E-01   2.500000E-01   2.500000E-01   2.500000E-01   2.500000E-01   2.500000E-01   2.500000E-01   2.500000E-01   2.500000E-01   2.500000E-01   2.500000E-01   2.500000E-01   2.500000E-01   2.500000E-01   2.500000E-01   2.500000E-01   2.500000E-01   2.500000E-01   2.500000E-01   2.500000E-01   2.500000E-01   2.500000E-01   2.500000E-01   2.500000E-01   2.500000E-01   2.500000E-01   2.500000E-01   2.500000E-01   2.500000E-01   2.500000E-01   2.500000E-01   2.500000E-01   2.500000E-01   2.500000E-01   2.500000E-01   2.500000E-01   2.500000E-01   2.500000E-01   2.500000E-01   2.500000E-01   2.500000E-01   2.500000E-01   2.500000E-01   2.500000E-01   2.500000E-01   2.500000E-01   2.500000E-01   2.500000E-01   2.500000E-01   2.500000E-01   2.500000E-01   2.500000E-01   2.500000E-01   2.500000E-01   2.500000E-01   2.500000E-01   2.500000E-01   2.500000E-01   2.500000E-01   2.500000E-01   2.500000E-01   2.500000E-01   2.500000E-01   2.500000E-01   2.500000E-01   2.500000E-01   2.500000E-01   2.500000E-01   2.500000E-01   2.500000E-01   2.500000E-01   2.500000E-01   2.500000E-01   2.500000E-01   2.500000E-01   2.500000E-01   2.500000E-01   2.500000E-01   2.500000E-01   2.500000E-01   2.500000E-01   2.500000E-01   2.500000E-01   2.500000E-01   2.500000E-01   2.500000E-01   2.500000E-01   2.500000E-01   2.500000E-01   2.500000E-01   2.500000E-01   2.500000E-01   2.500000E-01   2.500000E-01   2.500000E-01   2.500000E-01   2.500000E-01   2.500000E-01   2.500000E-01   2.500000E-01   2.500000E-01   2.500000E-01   2.500000E-01   2.500000E-01   2.500000E-01   2.500000E-01   2.500000E-01   2.500000E-01   2.500000E-01   2.500000E-01   2.500000E-01   2.500000E-01   2.500000E-01   2.500000E-01   2.500000E-01   2.500000E-01   2.500000E-01   2.500000E-01   2.500000E-01   2.500000E-01   2.500000E-01   2.500000E-01   2.500000E-01   2.500000E-01   2.500000E-01   2.500000E-01   2.500000E-01   2.500000E-01   2.500000E-01   2.500000E-01   2.500000E-01   2.500000E-01   2.500000E-01   2.500000E-01   2.500000E-01   2.500000E-01   2.500000E-01   2.500000E-01   2.500000E-01   2.500000E-01   2.500000E-01   2.500000E-01   2.500000E-01   2.500000E-01   2.500000E-01   2.500000E-01   2.500000E-01   2.500000E-01   2.500000E-01   2.500000E-01   2.500000E-01   2.500000E-01   2.500000E-01   2.500000E-01   2.500000E-01   2.500000E-01   2.500000E-01   2.500000E-01   2.500000E-01   2.500000E-01   2.500000E-01   2.500000E-01   2.500000E-01   2.500000E-01   2.500000E-01   2.500000E-01   2.500000E-01   2.500000E-01   2.500000E-01   2.500000E-01   2.500000E-01   2.500000E-01   2.500000E-01   2.500000E-01   2.500000E-01   2.500000E-01   2.500000E-01   2.500000E-01   2.500000E-01   2.500000E-01   2.500000E-01   2.500000E-01   2.500000E-01   2.500000E-01   2.500000E-01   2.500000E-01   2.500000E-01   2.500000E-01   2.500000E-01   2.500000E-01   2.500000E-01   2.500000E-01   2.500000E-01   2.500000E-01   2.500000E-01   2.500000E-01   2.500000E-01   2.500000E-01   2.500000E-01   2.500000E-01   2.500000E-01   2.500000E-01   2.500000E-01   2.500000E-01   2.500000E-01   2.500000E-01   2.500000E-01   2.500000E-01   2.500000E-01   2.500000E-01   2.500000E-01   2.500000E-01   2.500000E-01   2.500000E-01   2.500000E-01   2.500000E-01   2.500000E-01   2.500000E-01   2.500000E-01   2.500000E-01   2.500000E-01   2.500000E-01   2.500000E-01   2.500000E-01   2.500000E-01   2.500000E-01   2.500000E-01   2.500000E-01   2.500000E-01   2.500000E-01   2.500000E-01   2.500000E-01   2.500000E-01   2.500000E-01   2.500000E-01   2.500000E-01   2.500000E-01   2.500000E-01   2.500000E-01   2.500000E-01   2.500000E-01   2.500000E-01   2.500000E-01   2.500000E-01   2.500000E-01   2.500000E-01   2.500000E-01   2.500000E-01   2.500000E-01   2.500000E-01   2.500000E-01   2.500000E-01   2.500000E-01   2.500000E-01   2.500000E-01   2.500000E-01   2.500000E-01   2.500000E-01   2.500000E-01   2.500000E-01   2.500000E-01   2.500000E-01   2.500000E-01   2.500000E-01   2.500000E-01   2.500000E-01   2.500000E-01   2.500000E-01   2.500000E-01   2.500000E-01   2.500000E-01   2.500000E-01   2.500000E-01   2.500000E-01   2.500000E-01   2.500000E-01   2.500000E-01   2.500000E-01   2.500000E-01   2.500000E-01   2.500000E-01   2.500000E-01   2.500000E-01   2.500000E-01   2.500000E-01   2.500000E-01   2.500000E-01   2.500000E-01   2.500000E-01   2.500000E-01   2.500000E-01   2.500000E-01   2.500000E-01   2.500000E-01   2.500000E-01   2.500000E-01   2.500000E-01   2.500000E-01   2.500000E-01   2.500000E-01   2.500000E-01   2.500000E-01   2.500000E-01   2.500000E-01   2.500000E-01   2.500000E-01   2.500000E-01   2.500000E-01   2.500000E-01   2.500000E-01   2.500000E-01   2.500000E-01   2.500000E-01   2.500000E-01   2.500000E-01   2.500000E-01   2.500000E-01   2.500000E-01   2.500000E-01   2.500000E-01   2.500000E-01   2.500000E-01   2.500000E-01   2.500000E-01   2.500000E-01   2.500000E-01   2.500000E-01   2.500000E-01   2.500000E-01   2.500000E-01   2.500000E-01   2.500000E-01   2.500000E-01   2.500000E-01   2.500000E-01   2.500000E-01   2.500000E-01   2.500000E-01   2.500000E-01   2.500000E-01   2.500000E-01   2.500000E-01   2.500000E-01   2.500000E-01   2.500000E-01   2.500000E-01   2.500000E-01   2.500000E-01   2.500000E-01   2.500000E-01
INTERNAL               1 (1201E15.6) -1 #delc                          