# OC package for  MODFLOW-2005, generated by Flopy.
HEAD PRINT FORMAT   0
HEAD SAVE UNIT    51
DRAWDOWN PRINT FORMAT   0
DRAWDOWN SAVE UNIT    52
COMPACT BUDGET AUX

period 1 step 1 
  save head
  save drawdown
  save budget

period 2 step 1 
  save head
  save drawdown
  save budget

period 2 step 2 
  save head
  save drawdown
  save budget

period 2 step 3 
  save head
  save drawdown
  save budget

period 2 step 4 
  save head
  save drawdown
  save budget

period 2 step 5 
  save head
  save drawdown
  save budget

period 2 step 6 
  save head
  save drawdown
  save budget

period 2 step 7 
  save head
  save drawdown
  save budget

period 2 step 8 
  save head
  save drawdown
  save budget

period 2 step 9 
  save head
  save drawdown
  save budget

period 2 step 10 
  save head
  save drawdown
  save budget

period 3 step 1 
  save head
  save drawdown
  save budget

period 3 step 2 
  save head
  save drawdown
  save budget

period 3 step 3 
  save head
  save drawdown
  save budget

period 3 step 4 
  save head
  save drawdown
  save budget

period 3 step 5 
  save head
  save drawdown
  save budget

period 3 step 6 
  save head
  save drawdown
  save budget

period 3 step 7 
  save head
  save drawdown
  save budget

period 3 step 8 
  save head
  save drawdown
  save budget

period 3 step 9 
  save head
  save drawdown
  save budget

period 3 step 10 
  save head
  save drawdown
  save budget

period 4 step 1 
  save head
  save drawdown
  save budget

period 4 step 2 
  save head
  save drawdown
  save budget

period 4 step 3 
  save head
  save drawdown
  save budget

period 4 step 4 
  save head
  save drawdown
  save budget

period 4 step 5 
  save head
  save drawdown
  save budget

period 4 step 6 
  save head
  save drawdown
  save budget

period 4 step 7 
  save head
  save drawdown
  save budget

period 4 step 8 
  save head
  save drawdown
  save budget

period 4 step 9 
  save head
  save drawdown
  save budget

period 4 step 10 
  save head
  save drawdown
  save budget

period 5 step 1 
  save head
  save drawdown
  save budget

period 5 step 2 
  save head
  save drawdown
  save budget

period 5 step 3 
  save head
  save drawdown
  save budget

period 5 step 4 
  save head
  save drawdown
  save budget

period 5 step 5 
  save head
  save drawdown
  save budget

period 5 step 6 
  save head
  save drawdown
  save budget

period 5 step 7 
  save head
  save drawdown
  save budget

period 5 step 8 
  save head
  save drawdown
  save budget

period 5 step 9 
  save head
  save drawdown
  save budget

period 5 step 10 
  save head
  save drawdown
  save budget

period 6 step 1 
  save head
  save drawdown
  save budget

period 6 step 2 
  save head
  save drawdown
  save budget

period 6 step 3 
  save head
  save drawdown
  save budget

period 6 step 4 
  save head
  save drawdown
  save budget

period 6 step 5 
  save head
  save drawdown
  save budget

period 6 step 6 
  save head
  save drawdown
  save budget

period 6 step 7 
  save head
  save drawdown
  save budget

period 6 step 8 
  save head
  save drawdown
  save budget

period 6 step 9 
  save head
  save drawdown
  save budget

period 6 step 10 
  save head
  save drawdown
  save budget

period 7 step 1 
  save head
  save drawdown
  save budget

period 7 step 2 
  save head
  save drawdown
  save budget

period 7 step 3 
  save head
  save drawdown
  save budget

period 7 step 4 
  save head
  save drawdown
  save budget

period 7 step 5 
  save head
  save drawdown
  save budget

period 7 step 6 
  save head
  save drawdown
  save budget

period 7 step 7 
  save head
  save drawdown
  save budget

period 7 step 8 
  save head
  save drawdown
  save budget

period 7 step 9 
  save head
  save drawdown
  save budget

period 7 step 10 
  save head
  save drawdown
  save budget

period 8 step 1 
  save head
  save drawdown
  save budget

period 8 step 2 
  save head
  save drawdown
  save budget

period 8 step 3 
  save head
  save drawdown
  save budget

period 8 step 4 
  save head
  save drawdown
  save budget

period 8 step 5 
  save head
  save drawdown
  save budget

period 8 step 6 
  save head
  save drawdown
  save budget

period 8 step 7 
  save head
  save drawdown
  save budget

period 8 step 8 
  save head
  save drawdown
  save budget

period 8 step 9 
  save head
  save drawdown
  save budget

period 8 step 10 
  save head
  save drawdown
  save budget

period 9 step 1 
  save head
  save drawdown
  save budget

period 9 step 2 
  save head
  save drawdown
  save budget

period 9 step 3 
  save head
  save drawdown
  save budget

period 9 step 4 
  save head
  save drawdown
  save budget

period 9 step 5 
  save head
  save drawdown
  save budget

period 9 step 6 
  save head
  save drawdown
  save budget

period 9 step 7 
  save head
  save drawdown
  save budget

period 9 step 8 
  save head
  save drawdown
  save budget

period 9 step 9 
  save head
  save drawdown
  save budget

period 9 step 10 
  save head
  save drawdown
  save budget

period 10 step 1 
  save head
  save drawdown
  save budget

period 10 step 2 
  save head
  save drawdown
  save budget

period 10 step 3 
  save head
  save drawdown
  save budget

period 10 step 4 
  save head
  save drawdown
  save budget

period 10 step 5 
  save head
  save drawdown
  save budget

period 10 step 6 
  save head
  save drawdown
  save budget

period 10 step 7 
  save head
  save drawdown
  save budget

period 10 step 8 
  save head
  save drawdown
  save budget

period 10 step 9 
  save head
  save drawdown
  save budget

period 10 step 10 
  save head
  save drawdown
  save budget

period 11 step 1 
  save head
  save drawdown
  save budget

period 11 step 2 
  save head
  save drawdown
  save budget

period 11 step 3 
  save head
  save drawdown
  save budget

period 11 step 4 
  save head
  save drawdown
  save budget

period 11 step 5 
  save head
  save drawdown
  save budget

period 11 step 6 
  save head
  save drawdown
  save budget

period 11 step 7 
  save head
  save drawdown
  save budget

period 11 step 8 
  save head
  save drawdown
  save budget

period 11 step 9 
  save head
  save drawdown
  save budget

period 11 step 10 
  save head
  save drawdown
  save budget

period 12 step 1 
  save head
  save drawdown
  save budget

period 12 step 2 
  save head
  save drawdown
  save budget

period 12 step 3 
  save head
  save drawdown
  save budget

period 12 step 4 
  save head
  save drawdown
  save budget

period 12 step 5 
  save head
  save drawdown
  save budget

period 12 step 6 
  save head
  save drawdown
  save budget

period 12 step 7 
  save head
  save drawdown
  save budget

period 12 step 8 
  save head
  save drawdown
  save budget

period 12 step 9 
  save head
  save drawdown
  save budget

period 12 step 10 
  save head
  save drawdown
  save budget

period 13 step 1 
  save head
  save drawdown
  save budget

period 13 step 2 
  save head
  save drawdown
  save budget

period 13 step 3 
  save head
  save drawdown
  save budget

period 13 step 4 
  save head
  save drawdown
  save budget

period 13 step 5 
  save head
  save drawdown
  save budget

period 13 step 6 
  save head
  save drawdown
  save budget

period 13 step 7 
  save head
  save drawdown
  save budget

period 13 step 8 
  save head
  save drawdown
  save budget

period 13 step 9 
  save head
  save drawdown
  save budget

period 13 step 10 
  save head
  save drawdown
  save budget

