# WEL package for  MODFLOW-2005, generated by Flopy.
         4         0
         4         0 # stress period 1
         1       501       601             0.0
         1       701       601             0.0
         1       601       701             0.0
         1       601       501             0.0
         4         0 # stress period 2
         1       501       601             0.0
         1       701       601             0.0
         1       601       701             0.0
         1       601       501           875.0
         4         0 # stress period 3
         1       501       601             0.0
         1       701       601             0.0
         1       601       701           875.0
         1       601       501             0.0
         4         0 # stress period 4
         1       501       601             0.0
         1       701       601             0.0
         1       601       701             0.0
         1       601       501          -250.0
         4         0 # stress period 5
         1       501       601             0.0
         1       701       601             0.0
         1       601       701          -750.0
         1       601       501             0.0
         4         0 # stress period 6
         1       501       601             0.0
         1       701       601             0.0
         1       601       701             0.0
         1       601       501          -400.0
         4         0 # stress period 7
         1       501       601             0.0
         1       701       601             0.0
         1       601       701          -350.0
         1       601       501             0.0
         4         0 # stress period 8
         1       501       601             0.0
         1       701       601           875.0
         1       601       701             0.0
         1       601       501             0.0
         4         0 # stress period 9
         1       501       601           875.0
         1       701       601             0.0
         1       601       701             0.0
         1       601       501             0.0
         4         0 # stress period 10
         1       501       601             0.0
         1       701       601          -250.0
         1       601       701             0.0
         1       601       501             0.0
         4         0 # stress period 11
         1       501       601          -750.0
         1       701       601             0.0
         1       601       701             0.0
         1       601       501             0.0
         4         0 # stress period 12
         1       501       601             0.0
         1       701       601          -400.0
         1       601       701             0.0
         1       601       501             0.0
         4         0 # stress period 13
         1       501       601          -350.0
         1       701       601             0.0
         1       601       701             0.0
         1       601       501             0.0
